BEN_A_246
          02172119523D 1   1.00000     0.00000     0
            
 17 17  0  0  0  0            999 V2000
   -2.7939  -14.9391  -19.1304 N   0  0  0  0  0  0  0  0  0  0  0  0
   -1.6557  -16.7764  -18.3338 N   0  0  0  0  0  0  0  0  0  0  0  0
   -1.0008  -13.3715  -14.7543 C   0  0  0  0  0  0  0  0  0  0  0  0
   -0.9196  -14.7312  -14.7545 C   0  0  0  0  0  0  0  0  0  0  0  0
   -1.4322  -12.7268  -15.8855 C   0  0  0  0  0  0  0  0  0  0  0  0
   -1.2709  -15.4343  -15.8879 C   0  0  0  0  0  0  0  0  0  0  0  0
   -1.7865  -13.4289  -17.0179 C   0  0  0  0  0  0  0  0  0  0  0  0
   -2.0638  -15.5321  -18.2052 C   0  0  0  0  0  0  0  0  0  0  0  0
   -1.7154  -14.8129  -17.0559 C   0  0  0  0  0  0  0  0  0  0  0  0
   -1.1331  -17.2083  -17.5786 H   0  0  0  0  0  0  0  0  0  0  0  0
   -1.8775  -17.3555  -19.1038 H   0  0  0  0  0  0  0  0  0  0  0  0
   -0.7293  -12.8094  -13.8746 H   0  0  0  0  0  0  0  0  0  0  0  0
   -0.5790  -15.2499  -13.8697 H   0  0  0  0  0  0  0  0  0  0  0  0
   -1.4893  -11.6500  -15.8936 H   0  0  0  0  0  0  0  0  0  0  0  0
   -1.1946  -16.5108  -15.8560 H   0  0  0  0  0  0  0  0  0  0  0  0
   -2.1232  -12.8800  -17.8859 H   0  0  0  0  0  0  0  0  0  0  0  0
   -3.0889  -13.9921  -19.0037 H   0  0  0  0  0  0  0  0  0  0  0  0
  1  8  2  0  0  0  0
  2  8  1  0  0  0  0
  2 10  1  0  0  0  0
  2 11  1  0  0  0  0
  3  4  2  0  0  0  0
  3  5  1  0  0  0  0
  3 12  1  0  0  0  0
  4  6  1  0  0  0  0
  4 13  1  0  0  0  0
  5  7  2  0  0  0  0
  5 14  1  0  0  0  0
  6  9  2  0  0  0  0
  6 15  1  0  0  0  0
  7  9  1  0  0  0  0
  7 16  1  0  0  0  0
  8  9  1  0  0  0  0
  1 17  1  0  0  0  0
M  END
$$$$
